<additional>
    <edgeData id="dump" freq="500" file="aggregated_s1000_r4000.xml"/>
</additional>
